%chk=PDI_3_C0S0.chk
%mem=30GB
%nprocshared=32

#p opt freq NoSymm b3lyp/6-311g(d,p)

PDI_3 S0 opt

0 1
C          0.77153       -0.30019       -0.20013
C          2.23305       -0.51172       -0.43871
C          3.11621        0.49239       -0.54852
N          4.50429        0.41984       -0.74728
C          5.19909        1.64103       -0.69462
O          4.66381        2.74406       -0.57191
C          6.67700        1.60330       -0.77928
C          7.38511        2.79384       -0.64939
C          8.77686        2.78769       -0.69693
C          9.52593        1.60078       -0.87550
C         10.95926        1.58429       -0.92285
C         11.74773        2.75531       -0.80937
C         13.13896        2.73113       -0.87265
C         13.80493        1.52231       -1.03768
C         15.28386        1.52738       -1.13444
O         15.85247        2.60941       -1.25316
N         15.92773        0.29332       -1.11399
C         17.40118        0.23420       -1.19572
C         17.88479        0.46747       -2.62902
C         18.12518        1.15771       -0.21042
C         15.24663       -0.91111       -1.29758
O         15.80084       -1.99134       -1.48936
C         13.76618       -0.86888       -1.28193
C         13.06072       -2.05908       -1.41260
C         11.66860       -2.04725       -1.38968
C         10.91936       -0.85655       -1.22814
C          9.48629       -0.83621       -1.19790
C          8.69952       -2.00207       -1.34667
C          7.30815       -1.97590       -1.30235
C          6.63615       -0.77352       -1.10287
C          5.15291       -0.78887       -1.04238
O          4.60805       -1.86537       -1.28298
C          7.35862        0.40631       -0.96294
C          8.79528        0.39041       -1.01259
C         11.64883        0.35435       -1.09251
C         13.08380        0.33529       -1.13286
H          0.48410       -0.74273        0.75868
H          0.19179       -0.78613       -0.99078
H          0.50076        0.76010       -0.18225
H          2.53232       -1.55274       -0.50078
H          2.73108        1.50703       -0.44021
H          6.86287        3.73860       -0.50350
H          9.25961        3.75471       -0.58350
H         11.29628        3.73499       -0.67715
H         13.69438        3.66456       -0.79379
H         17.70634       -0.78270       -0.91764
H         17.62586        1.46957       -2.98547
H         17.42844       -0.25481       -3.31482
H         18.97175        0.35328       -2.69580
H         18.08802        2.20817       -0.51295
H         19.18491        0.88557       -0.14880
H         17.69651        1.07413        0.79354
H         13.58533       -3.00572       -1.53334
H         11.18511       -3.01437       -1.49859
H          9.15001       -2.97825       -1.50491
H          6.75712       -2.90797       -1.42218

