%chk=TT-PDI_0_C0S2.chk
%mem=30GB
%nprocshared=32

#p opt freq NoSymm td(NStates=20,Root=2)  b3lyp/6-311g(d,p)

TT-PDI_0 S2 opt

0 1
C          0.86378       -0.00333        0.24434
C          2.38364       -0.01611        0.06436
C          3.08143       -0.74861        1.21442
N          2.77790       -0.52429       -1.26531
C          2.55839       -1.86427       -1.57684
O          2.03023       -2.67527       -0.82053
C          2.98191       -2.32970       -2.91875
C          2.84198       -3.67626       -3.23441
C          3.23429       -4.14184       -4.48681
C          3.77961       -3.29176       -5.47906
C          4.18705       -3.76320       -6.77066
C          4.08186       -5.11886       -7.16163
C          4.47617       -5.56827       -8.41936
C          5.00118       -4.67476       -9.34781
C          5.37058       -5.17874      -10.69499
O          5.20962       -6.38132      -10.89631
N          5.83920       -4.23769      -11.61796
C          6.12530       -4.69804      -12.92070
C          6.34579       -5.99771      -13.44096
C          6.51780       -6.00210      -14.78816
S          6.81897       -7.27103      -15.82810
C          6.82595       -6.07402      -17.17990
C          6.58620       -4.77820      -16.68461
C          6.41853       -4.77766      -15.33642
S          6.10613       -3.51517      -14.30191
C          6.17027       -2.92665      -11.26058
O          6.89425       -2.15327      -11.88478
C          5.68603       -2.45104       -9.94198
C          5.82340       -1.10344       -9.62531
C          5.41453       -0.63383       -8.38000
C          4.86191       -1.48199       -7.39141
C          4.45165       -1.00896       -6.10133
C          4.55446        0.34825       -5.71133
C          4.15837        0.79880       -4.45468
C          3.63975       -0.09762       -3.52753
C          3.23417        0.40894       -2.19566
O          3.31191        1.61638       -1.98003
C          3.51105       -1.44488       -3.85482
C          3.91544       -1.91687       -5.14970
C          4.72601       -2.85672       -7.72168
C          5.13674       -3.33059       -9.01508
H          0.59212        0.48300        1.18733
H          0.44032       -1.01208        0.25796
H          0.38299        0.54818       -0.57084
H          2.70961        1.02794        0.14357
H          2.73002       -1.77717        1.33402
H          2.89678       -0.23137        2.16237
H          4.16428       -0.77941        1.05273
H          2.42824       -4.37653       -2.51014
H          3.09602       -5.20559       -4.66082
H          3.68079       -5.87553       -6.49247
H          4.36034       -6.62331       -8.66478
H          6.38699       -6.89137      -12.83108
H          6.99909       -6.41346      -18.19152
H          6.54552       -3.90320      -17.32140
H          6.25583       -0.40528      -10.34117
H          5.55516        0.42957       -8.20530
H          4.95087        1.10558       -6.38238
H          4.26166        1.85474       -4.20894

