%chk=TT_1_C1S0.chk
%mem=30GB
%nprocshared=32

#p opt freq NoSymm b3lyp/6-311g(d,p)

TT_1 S0 opt

1 2
C         -1.52734       -0.14358        0.11722
C         -0.94478        1.11363        0.00782
C          0.44462        1.23839       -0.11391
C          1.28613        0.11100       -0.12516
C          2.76610        0.21111       -0.25579
C          3.68222       -0.81874       -0.41278
C          5.02389       -0.34123       -0.50264
S          6.58812       -1.09099       -0.69900
C          7.33585        0.45084       -0.67428
C          6.45458        1.49642       -0.52130
C          5.11387        1.01609       -0.41888
S          3.55363        1.75145       -0.21170
C          0.66823       -1.14804       -0.01118
C         -0.72089       -1.27572        0.10695
H         -2.60562       -0.24053        0.21017
H         -1.56810        2.00442        0.01535
H          0.84646        2.24433       -0.20230
H          3.42988       -1.86915       -0.46719
H          8.41107        0.51309       -0.77524
H          6.74362        2.53879       -0.48367
H          1.25535       -2.06222       -0.00819
H         -1.16866       -2.26259        0.19177

